46
Coordinates from ORCA-job B10
  N   -0.74505179056834      2.36040339636015      0.72861729449038
  C   0.32732179481147      2.84367644837076      0.02148190925579
  C   0.56606356162149      4.24104120205422     -0.09714877321922
  C   1.62323430897854      4.74895944591065     -0.85306517609879
  C   2.49868915530642      3.87470572870545     -1.52965189879937
  Cl  3.77246501025002      4.51743382041845     -2.54049791212350
  C   2.33479797514132      2.49349266856693     -1.39927268710783
  C   1.28135069803671      1.99039197587667     -0.61545438369485
  S   1.10257752688218      0.21577151010024     -0.55326291017481
  O   -0.33897846135491     -0.10237178312424     -0.71763303533143
  O   2.12213189767301     -0.44358608711661     -1.37565795507096
  N   1.38778628652546     -0.21774931913081      1.15562268000092
  C   0.32383144115608     -0.69995535838938      1.90542090550668
  C   0.76962071884082     -0.98050317956416      3.18890097613914
  C   2.15109204078968     -0.66270304787748      3.22893997122715
  C   2.54073988594079     -0.19493740427506      1.96895573596984
  C   3.94544792887459      0.15143692099282      1.68548598792264
  O   4.81088755862118      0.07241866232208      2.54561460250054
  O   4.21345439393162      0.53724934499482      0.40263515930646
  C   5.61270450833423      0.73731789466472      0.14621267373211
  H   6.18212405009391     -0.10331245884153      0.58950490715586
  C   5.90153910016455      1.00817854731781     -1.37566152107425
  C   6.59233131483161      2.29720808587107     -0.92744776120560
  C   7.60785065813108      2.35832412973697      0.11301518923071
  C   8.88616846987874      1.69238710245697      0.36682073467302
  C   9.12385860511668      0.86219229033018      1.40505201676932
  C   6.15620492953396      2.14462425293608      0.53591239018645
  C   5.55067449296871      3.44360061163760      0.99854495365567
  C   6.17537570363409      4.40120035680245      0.26583611071508
  C   7.15189802488981      3.67438088011223     -0.64987035267597
  H   -1.45277418039214      3.03491500849609      1.01800009446666
  H   -1.09322736633570      1.43701363173578      0.45087310219491
  H   -0.12711757071222      4.93771021957377      0.40029521620370
  H   1.76544047758096      5.83577084751425     -0.94268539631186
  H   3.00096351640736      1.78678186958942     -1.90913770043071
  H   -0.65756224278368     -0.82970991299189      1.44109501301601
  H   0.15484335956294     -1.38057334969822      4.00314819929596
  H   2.84934606302632     -0.76223548854386      4.06766589692773
  H   4.95916950596176      1.18284659983556     -1.92720982807336
  H   6.50987876192196      0.25444024874463     -1.91771864837872
  H   9.68771527993138      1.90366926970573     -0.36526627798701
  H   8.34543406248662      0.65274258365386      2.15728187821429
  H   10.09966621526438      0.36843854679065      1.52820209367431
  H   4.81154036451676      3.57149627157509      1.79938293220857
  H   6.07412149515111      5.49190918742905      0.34459372360977
  H   7.85062046937666      4.19681782837004     -1.32399013049144
