50
Coordinates from ORCA-job B2
  C   1.68939118298204      0.79920537910506     -1.08523563569894
  C   1.23652037449446     -0.61018635969789     -1.44471867909114
  O   2.28849430163227     -1.58419362662181     -1.24531130021639
  C   3.13971802360231     -1.75576162260488     -2.29821746027374
  O   3.05859060327644     -1.11716335930078     -3.33868805251139
  C   4.18240527850611     -2.76590872323619     -2.06434337028708
  C   5.25640097022354     -2.97257656110396     -2.93445060586345
  C   6.09782755147688     -3.99254607732894     -2.40105797767458
  C   5.50769287289308     -4.39631971451423     -1.20571959154421
  N   4.35621991652692     -3.65259295535452     -0.98687096540802
  S   3.28989577165753     -4.09352649012846      0.37442436891616
  O   1.92743500847951     -4.28160205545715     -0.17696559167726
  O   4.01106840321602     -5.22915796001843      0.98042578750015
  C   3.34992283055568     -2.71571124742243      1.47853343998873
  C   2.18545457904767     -2.10219357968962      1.95889675755530
  C   2.33930816803408     -1.06382787745694      3.00896483420499
  C   3.69684884229879     -0.39852879136978      3.15933452920533
  C   4.84993957129861     -1.26110374344249      2.72420735723685
  C   4.68087826007945     -2.35514743259901      1.94536708448910
  Cl  6.43454685581493     -0.72181316720200      3.22924619105831
  C   1.27419646005691     -0.79559987898378      3.83633164715126
  C   1.14532631413975      0.16951152857991      4.93075860847775
  C   0.21561581929247     -0.12102022291384      5.96763325390649
  C   0.04101647503175      0.74431834827874      7.05401550553021
  C   0.77469980191137      1.94320527495741      7.12658886539327
  C   1.67459390247915      2.26689898756524      6.09698948600317
  C   1.86128613866013      1.39462543584245      5.01339897560000
  N   0.92434389882617     -2.45598101099235      1.58312772095260
  C   7.36629493069183     -4.53576075344044     -2.99792403931309
  H   0.83952332177038      1.50616625758196     -1.18314738811405
  H   2.49593560098434      1.13431710441926     -1.76566175578717
  H   2.06007323767591      0.84758953448982     -0.04181170598316
  H   0.90482652518134     -0.65721328488402     -2.50127766173456
  H   0.41383047850184     -0.95445330171383     -0.78763474119808
  H   5.39050422851360     -2.40519910967039     -3.86309324634329
  H   5.79242551801156     -5.17597135748677     -0.49127199259701
  H   3.84401804229538     -0.08674841803229      4.21427093044846
  H   3.73640235161268      0.55035698180124      2.56863499581950
  H   5.54368596383420     -2.95649579297608      1.62805388650775
  H   0.39362984243865     -1.45154959126218      3.72473572393339
  H   -0.36439137413754     -1.05627439456936      5.91504723094121
  H   -0.67535256840459      0.48638361893632      7.84956677833668
  H   0.63481608457231      2.62848045919495      7.97697690590147
  H   2.23258493034578      3.21528238798296      6.13104340083411
  H   2.53591460551190      1.69510601756920      4.20061068127792
  H   0.83283580871755     -3.14723527141677      0.82589638598257
  H   0.16627429508369     -1.79660518800989      1.75045583907257
  H   7.19259805820883     -4.94565795511351     -4.01477968193246
  H   7.78954484404255     -5.34841649712696     -2.37563854468444
  H   8.14140709805376     -3.74623394316255     -3.09625718429179
