48
Coordinates from ORCA-job B3
  C   2.04845098300584      0.49823478847148      1.33120271762847
  C   1.56332706083131     -0.92265707168845      1.58539968308420
  O   2.66628213308132     -1.82844003718004      1.84918278077766
  C   3.09215129497139     -1.89001249234084      3.14051445429336
  O   2.61280279718791     -1.22807711478232      4.04872019748616
  C   4.22368757867414     -2.81450368391618      3.33578367951007
  C   4.99333060836957     -2.86238117916647      4.49457531744822
  C   6.04072460592189     -3.82809628643099      4.31933726424222
  C   5.85757534336517     -4.36079460977633      3.03679050334534
  N   4.78229150707280     -3.73700609818769      2.42786625956650
  S   4.14754195171629     -4.40507575822300      0.90674398595195
  O   5.08370179695491     -5.50657210365351      0.61906998663230
  O   2.70589154609225     -4.67223638702216      1.10395270478099
  C   4.38820553317773     -3.11477347689732     -0.30839826288966
  C   3.33203946912613     -2.69959661036939     -1.17823170837505
  C   3.70207416057092     -1.78799891302707     -2.21158840180782
  C   5.00620405202027     -1.32414197039402     -2.36497742770619
  C   6.02188835676069     -1.75639781966915     -1.48454437383904
  C   5.71369204437333     -2.66241505643513     -0.46789892188003
  Cl  7.65847082107107     -1.16904575007024     -1.67763472539016
  N   2.03294744012844     -3.10407478338097     -1.04964995887673
  C   7.07378151900402     -4.31051590125549      5.23569575033751
  C   7.56777113618408     -3.79589288899756      6.39910829552873
  C   7.33672372621825     -2.50043928289520      7.06420735048237
  C   7.13200242554772     -1.29073646550768      6.35353027420099
  C   6.95728918588425     -0.07621265000368      7.03226171663576
  C   6.98722049448958     -0.03529152601330      8.43792719438231
  C   7.21353718647278     -1.22054319593285      9.15895938078005
  C   7.39637845638993     -2.43389420458030      8.47984642497448
  H   2.52524967679203      0.91893561853032      2.23794591123251
  H   1.18742285924071      1.14619482487767      1.06666798606264
  H   2.77584517138968      0.53013887863720      0.49491213609791
  H   0.86811505685608     -0.95610535809371      2.44845659191142
  H   1.07346220374415     -1.35471966394323      0.69206857980213
  H   4.78897763711188     -2.24072370805979      5.37246175377820
  H   6.39292867855347     -5.16121131189190      2.51543249793529
  H   2.91912124503382     -1.43867138977654     -2.90296377451636
  H   5.25127056386494     -0.61808265560504     -3.17173574920745
  H   6.50346435888413     -3.01921689647054      0.20803246029906
  H   1.80622165115626     -3.81054537968410     -0.34092075835878
  H   1.38325438253475     -2.92865665529711     -1.81308815183231
  H   7.49174395009288     -5.28857073618450      4.94031085877903
  H   8.26449372339344     -4.45825935936734      6.94426153297114
  H   7.13608228410677     -1.30445496017710      5.25351577353286
  H   6.80358545398642      0.85079598595245      6.45775767772452
  H   6.84604495426894      0.91935528500630      8.96815545190104
  H   7.25358418183801     -1.19838162004548     10.25969685715729
  H   7.58178675248771     -3.35791236908174      9.05097022342483
