48
Coordinates from ORCA-job B5
  C   -1.49673756854323     -1.37890184003801      1.23646079207415
  C   -1.07631076789556     -0.39490960672262      2.12552755942843
  C   0.34019375869688     -0.32744836332201      2.04189502324363
  C   0.76776743774896     -1.27737730192543      1.11110221379636
  C   2.17743885383238     -1.58165135302825      0.80154472014272
  O   3.11302703742753     -0.87959888619710      1.15587000780593
  O   2.30208238862670     -2.74916626400967      0.12165944118818
  C   3.63117472167832     -3.14650970040453     -0.28826410620595
  C   3.98384945938810     -2.57029907720501     -1.65408520471607
  N   -0.38015923750914     -1.92347941965706      0.62219395755270
  S   -0.46812398145495     -3.10265594860074     -0.73549678988800
  O   0.23770045999448     -2.45713289869118     -1.86981056287541
  O   -0.06845791622346     -4.42063374738950     -0.22422419152569
  C   -2.21867453438075     -3.11000889744342     -1.08963551901992
  C   -2.96148749478623     -4.18333968375208     -0.56396875060693
  C   -4.34522868098033     -4.29845312278644     -0.79016092466947
  C   -4.94891223255575     -3.27705664646320     -1.57354233337225
  C   -4.21865635695435     -2.21774789379796     -2.10657458898193
  C   -2.81541875474068     -2.08826805933267     -1.89595929976952
  N   -2.11413438832819     -1.03672817580590     -2.41043609595854
  C   -5.13210925612687     -5.43206701559536     -0.23746301467404
  C   -4.55686211334609     -6.71587960771788     -0.09929554897557
  C   -5.27237153660638     -7.81289359738439      0.43173493097267
  C   -4.59441512824921     -9.11876713063304      0.53700797702867
  C   -5.09588856012767    -10.26673500885128      1.04269827634145
  C   -6.61621691042226     -7.60359829083125      0.82944370705989
  C   -7.20446857891376     -6.34032296078910      0.69623284122929
  C   -6.47539668906739     -5.26026365992496      0.17062936429158
  H   -2.50297858732471     -1.72942048551058      0.98849241593516
  H   -1.73451265965081      0.20360537672337      2.76611934138584
  H   1.02537617576399      0.31573096452093      2.60611682655409
  H   4.35262723242601     -2.81817250449005      0.48733136407440
  H   3.59201250916140     -4.25341627226783     -0.31108799358383
  H   4.06677137407776     -1.46624536101810     -1.60550593318134
  H   3.21065711681487     -2.83578508053767     -2.40167713436687
  H   4.95994283554793     -2.97355421238530     -1.99381926761815
  H   -2.42638905326114     -4.92508613092114      0.04694439618339
  H   -6.02471170081381     -3.33790196627125     -1.80017435874840
  H   -4.72652195573573     -1.46215431999166     -2.72724696926483
  H   -2.57713397656462     -0.42536943170664     -3.08070734780304
  H   -1.09130357474576     -1.11773240019995     -2.45090088199097
  H   -3.52190454495638     -6.88210420225829     -0.43837984677519
  H   -3.55854537399293     -9.12936826692015      0.15410225967765
  H   -6.11728241355930    -10.34072694515773      1.44866762188831
  H   -4.48825379805580    -11.18398563459360      1.07073735294830
  H   -7.20496497429783     -8.43622048974494      1.24261741702705
  H   -8.24676794853447     -6.18674489822739      1.01586145729444
  H   -6.94837011247976     -4.26828358074194      0.10367539944765
