46
Coordinates from ORCA-job B8
  C   6.17693791851071      1.63083968768118      0.54340884478880
  C   5.13138903437480      2.45733475045201      0.87882352058965
  C   3.74931657601870      2.33713224817338      1.39252602859419
  C   2.93858942196436      3.48999286131687      1.17490589032253
  C   1.59318007784480      3.55787382921060      1.54832327310361
  C   0.98476602628123      2.45712662284989      2.17491144602367
  C   1.75621036427063      1.31604525675667      2.43112017490160
  C   3.12096941147466      1.23642933003352      2.07486216589022
  C   3.85935023887418     -0.00474367077469      2.40155280788971
  C   5.05290926779973     -0.09046817166302      3.11533661047872
  N   5.56317981887649     -1.37527106468332      3.00105483081546
  C   4.67620974548081     -2.14407878317393      2.22655006371915
  C   3.59982851537849     -1.32025126602553      1.88935780834274
  C   4.94633155447845     -3.52807825153380      1.79124840678245
  O   6.03906225173399     -4.07394460038769      1.81204376680204
  O   3.80996314100459     -4.10179266484900      1.31157560274081
  C   3.93984313964835     -5.44512980731348      0.78212786804550
  C   3.74411280244409     -6.49488950661482      1.86734925057236
  S   7.35379692502087     -1.52453352366859      3.07986056784745
  O   7.76815684039100     -0.23341665752635      3.66126329765403
  O   7.71818985024036     -2.78753060028616      3.72671347741823
  C   7.86098968123196     -1.51616237226059      1.33181777357812
  C   8.92349991905597     -2.38941617190103      1.05172392594407
  C   9.64710923446574     -2.22305552017337     -0.13938116965718
  Cl  10.96450785656276     -3.30769526786088     -0.51247938377931
  C   9.32079424576194     -1.18258835776013     -1.02939978953185
  C   8.22841784998976     -0.34959114580766     -0.75867067422194
  C   7.45027441243524     -0.50578547323255      0.41189010011990
  N   6.28959787942640      0.25572743227803      0.61829234796600
  H   7.09416986760219      2.11882163686674      0.17475056323563
  H   5.38007062425820      3.50727360692544      0.65143925460002
  H   3.39667662021594      4.35730831013077      0.67283445661224
  H   1.01636185231584      4.47366178253688      1.34480907610619
  H   -0.07309207131837      2.49204861435644      2.47584612765775
  H   1.30534143993956      0.45484102786787      2.94949764763839
  H   5.63710210409007      0.68758902375731      3.61573506264571
  H   2.73915092756453     -1.63530681658536      1.28886039529130
  H   4.93669574573340     -5.54603660714604      0.30732222685691
  H   3.15461161432800     -5.51337777244824      0.00309044626127
  H   4.55399047641720     -6.44000068249167      2.62139213893674
  H   3.76230351495543     -7.50882775462140      1.41748179517378
  H   2.76972406260036     -6.36355984076430      2.37983649129340
  H   9.18768707386153     -3.17211955678014      1.77615373934436
  H   9.90138536814101     -1.05646058284065     -1.95430599288393
  H   7.93119448288020      0.41559367375429     -1.49145741253999
  H   5.47035229537381     -0.24238720377350      0.97524515002948
